Version 4
SHEET 1 880 680
WIRE 144 -208 -144 -208
WIRE 144 -160 144 -208
WIRE -144 -144 -144 -208
WIRE -144 -16 -144 -64
WIRE 144 -16 144 -64
FLAG -144 -16 0
FLAG 144 -16 0
FLAG -144 -208 in
SYMBOL voltage -144 -160 R0
WINDOW 123 0 0 Left 0
WINDOW 39 0 0 Left 0
SYMATTR InstName V1
SYMATTR Value SINE(0 2 1 -1)
SYMBOL memristor 144 -112 R0
SYMATTR InstName U1
TEXT -256 8 Left 2 !.tran 0 20 0
