Version 4
SHEET 1 1492 680
WIRE 1120 -1136 1056 -1136
WIRE 1120 -1088 1120 -1136
WIRE 1168 -928 784 -928
WIRE 1120 -896 1120 -1008
WIRE 1120 -896 992 -896
WIRE 1120 -832 1120 -896
WIRE 1168 -816 1168 -928
WIRE 1120 -736 1104 -736
WIRE 1104 -720 1104 -736
WIRE 1216 -720 1104 -720
WIRE 784 -640 784 -928
WIRE 832 -640 784 -640
WIRE 960 -640 912 -640
WIRE 1216 -640 1216 -720
WIRE 1232 -640 1216 -640
WIRE 992 -624 992 -896
WIRE 864 -592 688 -592
WIRE 1232 -544 1216 -544
WIRE 1312 -544 1232 -544
WIRE 864 -528 864 -592
WIRE 944 -512 896 -512
WIRE 784 -496 784 -640
WIRE 832 -496 784 -496
WIRE 960 -480 960 -640
WIRE 960 -480 896 -480
WIRE 992 -480 992 -544
WIRE 992 -480 960 -480
WIRE 1216 -464 1216 -544
WIRE 992 -448 992 -480
WIRE 1216 -432 1216 -464
WIRE 864 -384 864 -464
WIRE 992 -352 992 -368
WIRE 1216 -352 992 -352
WIRE 1216 -304 1216 -352
WIRE 944 -256 944 -512
WIRE 1312 -256 1312 -544
WIRE 1312 -256 944 -256
FLAG 1216 -304 0
FLAG 1056 -1136 0
FLAG 1216 -464 in
FLAG 784 -416 0
FLAG 608 -592 0
FLAG 864 -304 0
SYMBOL nmos 1168 -736 R180
SYMATTR InstName M2
SYMATTR Value Si7336ADP
SYMBOL res 1200 -448 R0
SYMATTR InstName R6
SYMATTR Value 1000
SYMBOL res 976 -640 R0
SYMATTR InstName R7
SYMATTR Value 2000
SYMBOL res 976 -464 R0
SYMATTR InstName R8
SYMATTR Value 1000
SYMBOL res 768 -512 R0
SYMATTR InstName R9
SYMATTR Value 1000
SYMBOL Opamps\\AD8515 864 -432 R180
SYMATTR InstName U1
SYMBOL res 928 -656 R90
WINDOW 0 0 56 VBottom 2
WINDOW 3 32 56 VTop 2
SYMATTR InstName R10
SYMATTR Value 100000
SYMBOL memristor 1232 -592 R180
SYMATTR InstName U4
SYMBOL voltage 1120 -1104 R0
WINDOW 0 24 96 Left 2
WINDOW 3 24 16 Left 2
WINDOW 123 0 0 Left 0
WINDOW 39 0 0 Left 0
SYMATTR InstName V5
SYMATTR Value 12
SYMBOL voltage 592 -592 R270
WINDOW 0 24 96 Left 2
WINDOW 3 24 16 Left 2
WINDOW 123 0 0 Left 0
WINDOW 39 0 0 Left 0
SYMATTR InstName V3
SYMATTR Value 12
SYMBOL voltage 864 -288 R180
WINDOW 0 24 96 Left 2
WINDOW 3 24 16 Left 2
WINDOW 123 0 0 Left 0
WINDOW 39 0 0 Left 0
SYMATTR InstName V4
SYMATTR Value 7
TEXT 588 -250 Left 2 !.tran 0.2
