Version 4
SHEET 1 1492 680
WIRE 992 -1328 928 -1328
WIRE 928 -1280 928 -1328
WIRE 1264 -1120 880 -1120
WIRE 928 -1088 928 -1200
WIRE 1056 -1088 928 -1088
WIRE 928 -1024 928 -1088
WIRE 880 -1008 880 -1120
WIRE 944 -928 928 -928
WIRE 944 -912 944 -928
WIRE 944 -912 832 -912
WIRE 832 -832 832 -912
WIRE 832 -832 816 -832
WIRE 1136 -832 1088 -832
WIRE 1264 -832 1264 -1120
WIRE 1264 -832 1216 -832
WIRE 1056 -816 1056 -1088
WIRE 1360 -784 1184 -784
WIRE 816 -736 736 -736
WIRE 832 -736 816 -736
WIRE 1184 -720 1184 -784
WIRE 1152 -704 1104 -704
WIRE 1264 -688 1264 -832
WIRE 1264 -688 1216 -688
WIRE 1056 -672 1056 -736
WIRE 1088 -672 1088 -832
WIRE 1088 -672 1056 -672
WIRE 1152 -672 1088 -672
WIRE 832 -656 832 -736
WIRE 1056 -640 1056 -672
WIRE 832 -624 832 -656
WIRE 1184 -576 1184 -656
WIRE 1056 -544 1056 -560
WIRE 1056 -544 832 -544
WIRE 832 -496 832 -544
WIRE 736 -448 736 -736
WIRE 1104 -448 1104 -704
WIRE 1104 -448 736 -448
FLAG 832 -496 0
FLAG 992 -1328 0
FLAG 832 -656 in
FLAG 1440 -784 0
FLAG 1184 -496 0
SYMBOL nmos 880 -928 M180
SYMATTR InstName M2
SYMATTR Value Si7336ADP
SYMBOL res 848 -640 M0
SYMATTR InstName R6
SYMATTR Value 1000
SYMBOL res 1072 -832 M0
SYMATTR InstName R7
SYMATTR Value 2000
SYMBOL res 1072 -656 M0
SYMATTR InstName R8
SYMATTR Value 1000
SYMBOL Opamps\\AD8515 1184 -624 M180
SYMATTR InstName U1
SYMBOL res 1120 -848 M90
WINDOW 0 0 56 VBottom 2
WINDOW 3 32 56 VTop 2
SYMATTR InstName R10
SYMATTR Value 100000
SYMBOL memristor 816 -784 M180
SYMATTR InstName U4
SYMBOL voltage 928 -1296 M0
WINDOW 0 24 96 Left 2
WINDOW 3 24 16 Left 2
WINDOW 123 0 0 Left 0
WINDOW 39 0 0 Left 0
SYMATTR InstName V5
SYMATTR Value 12
SYMBOL voltage 1456 -784 M270
WINDOW 0 24 96 Left 2
WINDOW 3 24 16 Left 2
WINDOW 123 0 0 Left 0
WINDOW 39 0 0 Left 0
SYMATTR InstName V3
SYMATTR Value 12
SYMBOL voltage 1184 -480 M180
WINDOW 0 24 96 Left 2
WINDOW 3 24 16 Left 2
WINDOW 123 0 0 Left 0
WINDOW 39 0 0 Left 0
SYMATTR InstName V4
SYMATTR Value 7
TEXT 1456 -440 Right 2 !.tran 0.2
