Version 4
SHEET 1 880 680
WIRE -288 -384 -352 -384
WIRE -288 -336 -288 -384
WIRE -240 -176 -624 -176
WIRE -288 -144 -288 -256
WIRE -288 -144 -416 -144
WIRE -288 -80 -288 -144
WIRE -240 -64 -240 -176
WIRE -288 16 -304 16
WIRE -304 32 -304 16
WIRE -192 32 -304 32
WIRE -624 112 -624 -176
WIRE -576 112 -624 112
WIRE -448 112 -496 112
WIRE -192 112 -192 32
WIRE -176 112 -192 112
WIRE -416 128 -416 -144
WIRE -176 208 -192 208
WIRE -96 208 -176 208
WIRE -416 240 -416 208
WIRE -416 240 -512 240
WIRE -624 256 -624 112
WIRE -576 256 -624 256
WIRE -448 272 -448 112
WIRE -448 272 -512 272
WIRE -192 288 -192 208
WIRE -416 304 -416 240
WIRE -192 320 -192 288
WIRE -544 368 -544 288
WIRE -416 400 -416 384
WIRE -192 400 -416 400
WIRE -192 448 -192 400
WIRE -544 464 -544 448
WIRE -448 496 -448 272
WIRE -96 496 -96 208
WIRE -96 496 -448 496
FLAG -192 448 0
FLAG -352 -384 0
FLAG -192 288 in
FLAG -544 464 0
FLAG -544 224 0
FLAG -624 336 0
SYMBOL res -208 304 R0
SYMATTR InstName R1
SYMATTR Value 1000
SYMBOL res -432 112 R0
SYMATTR InstName R2
SYMATTR Value 40k
SYMBOL res -432 288 R0
SYMATTR InstName R3
SYMATTR Value 1000
SYMBOL voltage -288 -240 R180
WINDOW 0 24 96 Left 2
WINDOW 3 24 16 Left 2
WINDOW 123 0 0 Left 0
WINDOW 39 0 0 Left 0
SYMATTR InstName V1
SYMATTR Value 12
SYMBOL voltage -544 352 R0
WINDOW 0 24 96 Left 2
WINDOW 3 24 16 Left 2
WINDOW 123 0 0 Left 0
WINDOW 39 0 0 Left 0
SYMATTR InstName V2
SYMATTR Value 5
SYMBOL pmos -240 16 R180
SYMATTR InstName M1
SYMATTR Value FDC5614P
SYMBOL res -640 240 R0
SYMATTR InstName R4
SYMATTR Value 1000
SYMBOL Opamps\\AD8515 -544 320 R180
SYMATTR InstName U1
SYMBOL res -480 96 R90
WINDOW 0 0 56 VBottom 2
WINDOW 3 32 56 VTop 2
SYMATTR InstName R5
SYMATTR Value 400000
SYMBOL memristor -176 160 R180
SYMATTR InstName U2
TEXT -664 544 Left 2 !.tran 0 0.5 0 0.0001
